@<TRIPOS>MOLECULE
*****
 53 58 0 0 0
SMALL
GASTEIGER

@<TRIPOS>ATOM
      1 P          -2.7330    3.1070    0.1580 P.3     1  UNL1        0.2189
      2 O          -3.2370    3.2460   -1.2320 O.2     1  UNL1       -0.5170
      3 O          -3.4390    3.7780    1.2640 O.3     1  UNL1       -0.4371
      4 O          -2.6640    1.5040    0.5140 O.3     1  UNL1       -0.3112
      5 C          -3.7950    0.8280    0.9640 C.3     1  UNL1        0.1813
      6 C          -4.8280    0.6370   -0.1410 C.3     1  UNL1        0.1801
      7 O          -5.7010   -0.4260    0.2610 O.3     1  UNL1       -0.3306
      8 C          -5.7510    1.8390   -0.4530 C.3     1  UNL1        0.2161
      9 O          -5.6480    2.2510   -1.7800 O.3     1  UNL1       -0.2175
     10 C          -7.1660    1.2740   -0.2440 C.3     1  UNL1        0.2337
     11 O          -8.1060    1.7600   -1.1420 O.3     1  UNL1       -0.2155
     12 C          -6.9290   -0.2330   -0.3510 C.3     1  UNL1        0.2409
     13 N          -7.9060   -1.0580    0.3360 N.ar    1  UNL1       -0.2693
     14 C          -8.0480   -1.1760    1.6920 C.ar    1  UNL1        0.1816
     15 N          -8.9830   -1.9750    2.0620 N.ar    1  UNL1       -0.2193
     16 C          -9.5090   -2.4350    0.8710 C.ar    1  UNL1        0.1518
     17 C         -10.5210   -3.3430    0.5720 C.ar    1  UNL1        0.1919
     18 N         -11.2700   -3.9380    1.5420 N.pl3   1  UNL1       -0.1054
     19 N         -10.7830   -3.6250   -0.6960 N.ar    1  UNL1       -0.2040
     20 C         -10.0620   -3.0120   -1.6320 C.ar    1  UNL1        0.2016
     21 N          -9.0940   -2.1440   -1.4850 N.ar    1  UNL1       -0.2048
     22 C          -8.8440   -1.8800   -0.2050 C.ar    1  UNL1        0.1692
     23 N           5.3610   -3.3700    0.0410 N.ar    1  UNL1       -0.1716
     24 C           5.5990   -4.6890   -0.2150 C.ar    1  UNL1        0.3728
     25 O           4.7570   -5.5360   -0.2220 O.2     1  UNL1       -0.2425
     26 N           6.9200   -5.0850   -0.4850 N.ar    1  UNL1       -0.1503
     27 C           8.0350   -4.3060   -0.4970 C.ar    1  UNL1        0.3037
     28 O           9.1260   -4.7360   -0.7210 O.2     1  UNL1       -0.2633
     29 C           7.7360   -2.8740   -0.1960 C.ar    1  UNL1        0.1732
     30 N           8.6970   -2.0450   -0.1570 N.ar    1  UNL1       -0.2361
     31 C           8.4240   -0.7340    0.1060 C.ar    1  UNL1        0.0970
     32 C           9.4930    0.1780    0.1320 C.ar    1  UNL1        0.0160
     33 C           9.2940    1.5070    0.3660 C.ar    1  UNL1       -0.0242
     34 C          10.4560    2.4720    0.3900 C.3     1  UNL1        0.0307
     35 C           7.9610    1.9580    0.5650 C.ar    1  UNL1       -0.0243
     36 C           7.6770    3.4250    0.7850 C.3     1  UNL1        0.0307
     37 C           6.9090    1.0770    0.5460 C.ar    1  UNL1        0.0142
     38 C           7.1210   -0.2950    0.3290 C.ar    1  UNL1        0.0786
     39 N           6.0940   -1.2240    0.3420 N.ar    1  UNL1       -0.3073
     40 C           6.3350   -2.5210    0.0530 C.ar    1  UNL1        0.1713
     41 C           4.7180   -0.8070    0.6790 C.3     1  UNL1        0.1430
     42 C           3.9080   -0.2900   -0.5280 C.3     1  UNL1        0.2072
     43 O           4.8260    0.1690   -1.4960 O.3     1  UNL1       -0.2182
     44 C           2.9460    0.8240   -0.1150 C.3     1  UNL1        0.2167
     45 O           3.6680    1.7870    0.6190 O.3     1  UNL1       -0.2175
     46 C           1.7090    0.3090    0.6420 C.3     1  UNL1        0.2145
     47 O           0.9080   -0.4140   -0.2390 O.3     1  UNL1       -0.2176
     48 C           0.9660    1.4600    1.3480 C.3     1  UNL1        0.1846
     49 O           1.1300    2.7050    0.7170 O.3     1  UNL1       -0.3111
     50 P           0.1870    3.1220   -0.5740 P.3     1  UNL1        0.2189
     51 O           0.7730    4.3510   -1.1120 O.3     1  UNL1       -0.4371
     52 O           0.0350    1.8880   -1.3800 O.2     1  UNL1       -0.5170
     53 O          -1.1710    3.4420    0.2420 O.3     1  UNL1       -0.2703
@<TRIPOS>BOND
     1     9     8    1
     2    20    21   ar
     3    20    19   ar
     4    43    42    1
     5    21    22   ar
     6    52    50    2
     7     2     1    2
     8    11    10    1
     9    51    50    1
    10    28    27    2
    11    19    17   ar
    12    50    53    1
    13    50    49    1
    14    42    44    1
    15    42    41    1
    16    27    26   ar
    17    27    29   ar
    18    26    24   ar
    19     8    10    1
    20     8     6    1
    21    12    10    1
    22    12     7    1
    23    12    13    1
    24    47    46    1
    25    25    24    2
    26    24    23   ar
    27    22    13   ar
    28    22    16   ar
    29    29    30   ar
    30     6     7    1
    31     6     5    1
    32    44    45    1
    33    44    46    1
    34    23    40   ar
    35    40    39   ar
    36    31    32   ar
    37    31    38   ar
    38    32    33   ar
    39     1    53    1
    40     1     4    1
    41     1     3    1
    42    38    39   ar
    43    38    37   ar
    44    13    14   ar
    45    39    41    1
    46    33    34    1
    47    33    35   ar
    48     4     5    1
    49    37    35   ar
    50    35    36    1
    51    17    16   ar
    52    17    18    1
    53    46    48    1
    54    49    48    1
    55    16    15   ar
    56    14    15   ar
    57    31    30   ar
    58    29    40    1
