@<TRIPOS>MOLECULE
*****
 31 33 0 0 0
SMALL
GASTEIGER

@<TRIPOS>ATOM
      1 N          -0.7788    0.9726   -2.5935 N.ar    1  UNL1       -0.1716
      2 C          -1.1568    1.7166   -3.6695 C.ar    1  UNL1        0.3728
      3 O          -2.1618    2.3466   -3.7455 O.2     1  UNL1       -0.2425
      4 N          -0.2988    1.7736   -4.8295 N.ar    1  UNL1       -0.1503
      5 C           0.9102    1.1276   -4.9495 C.ar    1  UNL1        0.3037
      6 O           1.6032    1.2186   -5.9945 O.2     1  UNL1       -0.2633
      7 C           1.3432    0.3326   -3.7995 C.ar    1  UNL1        0.1732
      8 N           2.4942   -0.3134   -3.8195 N.ar    1  UNL1       -0.2361
      9 C           2.8702   -1.0574   -2.7245 C.ar    1  UNL1        0.0970
     10 C           4.1432   -1.7664   -2.7535 C.ar    1  UNL1        0.0160
     11 C           4.5782   -2.5284   -1.6815 C.ar    1  UNL1       -0.0242
     12 C           5.9192   -3.2984   -1.6645 C.3     1  UNL1        0.0307
     13 C           3.7342   -2.6354   -0.4525 C.ar    1  UNL1       -0.0243
     14 C           4.1662   -3.4504    0.7575 C.3     1  UNL1        0.0307
     15 C           2.5022   -1.9724   -0.3975 C.ar    1  UNL1        0.0142
     16 C           2.0432   -1.1784   -1.4935 C.ar    1  UNL1        0.0786
     17 N           0.7922   -0.4624   -1.5285 N.ar    1  UNL1       -0.3073
     18 C           0.4072    0.3036   -2.6215 C.ar    1  UNL1        0.1713
     19 C          -0.1868   -0.5064   -0.3805 C.3     1  UNL1        0.1430
     20 C           0.0802    0.4986    0.7435 C.3     1  UNL1        0.2072
     21 O           1.4802    0.7106    0.9085 O.3     1  UNL1       -0.2182
     22 C          -0.4808   -0.0374    2.0885 C.3     1  UNL1        0.2167
     23 O           0.1112   -1.3954    2.2925 O.3     1  UNL1       -0.2175
     24 C          -1.9508   -0.3144    2.1295 C.3     1  UNL1        0.2147
     25 O          -2.7758    0.8426    1.7985 O.3     1  UNL1       -0.2176
     26 C          -2.2578   -0.8374    3.5445 C.3     1  UNL1        0.1892
     27 O          -3.3978   -0.2364    4.1355 O.3     1  UNL1       -0.2674
     28 P          -3.4208    1.1166    4.9435 P.3     1  UNL1        0.5327
     29 O          -2.9658    2.2156    4.0215 O.2     1  UNL1       -0.2224
     30 O          -2.5018    1.0066    6.1905 O.3     1  UNL1       -0.1145
     31 O          -4.9078    1.1766    5.2925 O.3     1  UNL1       -0.1145
@<TRIPOS>BOND
     1     6     5    2
     2     5     4   ar
     3     5     7   ar
     4     4     2   ar
     5     8     7   ar
     6     3     2    2
     7     2     1   ar
     8    10     9   ar
     9    10    11   ar
    10     9    16   ar
    11    18     1   ar
    12    18    17   ar
    13    11    12    1
    14    11    13   ar
    15    17    16   ar
    16    17    19    1
    17    16    15   ar
    18    13    15   ar
    19    13    14    1
    20    19    20    1
    21    20    21    1
    22    20    22    1
    23    25    24    1
    24    22    24    1
    25    22    23    1
    26    24    26    1
    27    26    27    1
    28    29    28    2
    29    27    28    1
    30    28    31    1
    31    28    30    1
    32     9     8   ar
    33     7    18    1
