@<TRIPOS>MOLECULE
*****
 31 33 0 0 0
SMALL
GASTEIGER

@<TRIPOS>ATOM
      1 N          11.9200   52.3910   17.0070 N.am    1  UNL1        0.0444
      2 C          11.5420   53.1350   15.9310 C.2     1  UNL1        0.4599
      3 O          10.5370   53.7650   15.8550 O.2     1  UNL1       -0.2173
      4 N          12.4000   53.1920   14.7710 N.am    1  UNL1       -0.0998
      5 C          13.6090   52.5460   14.6510 C.2     1  UNL1        0.2827
      6 O          14.3020   52.6370   13.6060 O.2     1  UNL1       -0.2703
      7 C          14.0420   51.7510   15.8010 C.3     1  UNL1        0.2742
      8 N          15.1930   51.1050   15.7810 N.pl3   1  UNL1       -0.2155
      9 C          15.5690   50.3610   16.8760 C.ar    1  UNL1        0.1029
     10 C          16.8420   49.6520   16.8470 C.ar    1  UNL1        0.0150
     11 C          17.2770   48.8900   17.9190 C.ar    1  UNL1       -0.0243
     12 C          18.6180   48.1200   17.9360 C.3     1  UNL1        0.0307
     13 C          16.4330   48.7830   19.1480 C.ar    1  UNL1       -0.0223
     14 C          16.8650   47.9680   20.3580 C.3     1  UNL1        0.0308
     15 C          15.2010   49.4460   19.2030 C.ar    1  UNL1        0.0371
     16 C          14.7420   50.2400   18.1070 C.ar    1  UNL1        0.1529
     17 N          13.4910   50.9560   18.0720 N.pl3   1  UNL1       -0.1695
     18 C          13.1060   51.7220   16.9790 C.2     1  UNL1        0.3286
     19 C          12.5120   50.9120   19.2200 C.3     1  UNL1        0.2424
     20 C          12.7790   51.9170   20.3440 C.3     1  UNL1        0.2315
     21 O          14.1790   52.1290   20.5090 O.3     1  UNL1       -0.2158
     22 C          12.2180   51.3810   21.6890 C.3     1  UNL1        0.2189
     23 O          12.8100   50.0230   21.8930 O.3     1  UNL1       -0.2174
     24 C          10.7480   51.1040   21.7300 C.3     1  UNL1        0.2148
     25 O           9.9230   52.2610   21.3990 O.3     1  UNL1       -0.2176
     26 C          10.4410   50.5810   23.1450 C.3     1  UNL1        0.1892
     27 O           9.3010   51.1820   23.7360 O.3     1  UNL1       -0.2674
     28 P           9.2780   52.5350   24.5440 P.3     1  UNL1        0.5327
     29 O           9.7330   53.6340   23.6220 O.2     1  UNL1       -0.2224
     30 O          10.1970   52.4250   25.7910 O.3     1  UNL1       -0.1145
     31 O           7.7910   52.5950   24.8930 O.3     1  UNL1       -0.1145
@<TRIPOS>BOND
     1     6     5    2
     2     5     4   am
     3     5     7    1
     4     4     2   am
     5     8     7    1
     6     3     2    2
     7     2     1    1
     8    10     9   ar
     9    10    11   ar
    10     9    16   ar
    11    18     1    2
    12    18    17    1
    13    11    12    1
    14    11    13   ar
    15    17    16    1
    16    17    19    1
    17    16    15   ar
    18    13    15   ar
    19    13    14    1
    20    19    20    1
    21    20    21    1
    22    20    22    1
    23    25    24    1
    24    22    24    1
    25    22    23    1
    26    24    26    1
    27    26    27    1
    28    29    28    2
    29    27    28    1
    30    28    31    1
    31    28    30    1
    32    18     7    2
    33     8     9    1
